data original/sourcebus_22000.trafo_75612672_75612672/Lines.dss
New Line.line_75607441_3102384_3097596 Units=km Length=0.019399999618530273 bus1=3097596.1.2.3 bus2=3102384.1.2.3 switch=n enabled=y phases=3 Linecode=3P_Code4
New Line.line_75607729_3097838_3097174 Units=km Length=0.03520000076293946 bus1=3097174.1.2.3 bus2=3097838.1.2.3 switch=n enabled=y phases=3 Linecode=3P_OH_Code2
New Line.line_75607741_3097449_3097186 Units=km Length=0.014800000190734864 bus1=3097186.1.2.3 bus2=3097449.1.2.3 switch=n enabled=y phases=3 Linecode=3P_Code1
New Line.line_75607742_3097449_3097187 Units=km Length=0.03390000152587891 bus1=3097187.1.2.3 bus2=3097449.1.2.3 switch=n enabled=y phases=3 Linecode=3P_OH_Code7
New Line.line_75607744_3097759_3097189 Units=km Length=0.0350999984741211 bus1=3097189.1.2.3 bus2=3097759.1.2.3 switch=n enabled=y phases=3 Linecode=3P_OH_Code2
New Line.line_75607745_3097210_3097190 Units=km Length=0.02 bus1=3097190.1.2.3 bus2=3097210.1.2.3 switch=n enabled=y phases=3 Linecode=3P_OH_Code2
New Line.line_75607765_3097174_3097210 Units=km Length=0.0325 bus1=3097210.1.2.3 bus2=3097174.1.2.3 switch=n enabled=y phases=3 Linecode=3P_OH_Code2
New Line.line_75607872_3097332_3097210 Units=km Length=0.031899999618530274 bus1=3097210.1.2.3 bus2=3097332.1.2.3 switch=n enabled=y phases=3 Linecode=3P_OH_Code0
New Line.line_75607890_3097408_3097332 Units=km Length=0.04090000152587891 bus1=3097332.1.2.3 bus2=3097408.1.2.3 switch=n enabled=y phases=3 Linecode=3P_OH_Code0
New Line.line_75607897_3097343_3097338 Units=km Length=0.030200000762939452 bus1=3097338.1.2.3 bus2=3097343.1.2.3 switch=n enabled=y phases=3 Linecode=3P_OH_Code2
New Line.line_75607971_3098447_3097408 Units=km Length=0.024600000381469728 bus1=3097408.1.2.3 bus2=3098447.1.2.3 switch=n enabled=y phases=3 Linecode=3P_OH_Code0
New Line.line_75608018_3098447_3097449 Units=km Length=0.04240000152587891 bus1=3097449.1.2.3 bus2=3098447.1.2.3 switch=n enabled=y phases=3 Linecode=3P_OH_Code7
New Line.line_75608194_3097838_3097596 Units=km Length=0.04840000152587891 bus1=3097596.1.2.3 bus2=3097838.1.2.3 switch=n enabled=y phases=3 Linecode=3P_OH_Code2
New Line.line_75608431_3099086_3097187 Units=km Length=0.0145 bus1=3097187.1.2.3 bus2=3099086.1.2.3 switch=n enabled=y phases=3 Linecode=3P_Code1
New Line.line_75608432_3099086_3097187 Units=km Length=0.0145 bus1=3097187.1.2.3 bus2=3099086.1.2.3 switch=n enabled=y phases=3 Linecode=3P_Code1
New Line.line_75608454_3099104_3097742 Units=km Length=0.012899999618530274 bus1=3097742.1.2.3 bus2=3099104.1.2.3 switch=n enabled=y phases=3 Linecode=3P_Code1
New Line.line_75608472_3099120_3097756 Units=km Length=0.01760000038146973 bus1=3097756.1.2.3 bus2=3099120.1.2.3 switch=n enabled=y phases=3 Linecode=3P_Code1
New Line.line_75608476_3099124_3097759 Units=km Length=0.012600000381469727 bus1=3097759.1.2.3 bus2=3099124.1.2.3 switch=n enabled=y phases=3 Linecode=3P_Code1
New Line.line_75608477_3099125_3097759 Units=km Length=0.025200000762939455 bus1=3097759.1.2.3 bus2=3099125.1.2.3 switch=n enabled=y phases=3 Linecode=3P_Code1
New Line.line_75608497_3099142_3097449 Units=km Length=0.015199999809265136 bus1=3097449.1.2.3 bus2=3099142.1.2.3 switch=n enabled=y phases=3 Linecode=3P_Code1
New Line.line_75608515_3099157_3097189 Units=km Length=0.010699999809265138 bus1=3097189.1.2.3 bus2=3099157.1.2.3 switch=n enabled=y phases=3 Linecode=3P_Code1
New Line.line_75608564_3099200_3097187 Units=km Length=0.012199999809265137 bus1=3097187.1.2.3 bus2=3099200.1.2.3 switch=n enabled=y phases=3 Linecode=3P_Code1
New Line.line_75608663_3099290_3097838 Units=km Length=0.025399999618530275 bus1=3097838.1.2.3 bus2=3099290.1.2.3 switch=n enabled=y phases=3 Linecode=3P_Code1
New Line.line_75608722_3099345_3097838 Units=km Length=0.015600000381469727 bus1=3097838.1.2.3 bus2=3099345.1.2.3 switch=n enabled=y phases=3 Linecode=3P_Code1
New Line.line_75608723_3099345_3097838 Units=km Length=0.015600000381469727 bus1=3097838.1.2.3 bus2=3099345.1.2.3 switch=n enabled=y phases=3 Linecode=3P_Code1
New Line.line_75608724_3099346_3097838 Units=km Length=0.020799999237060548 bus1=3097838.1.2.3 bus2=3099346.1.2.3 switch=n enabled=y phases=3 Linecode=3P_Code1
New Line.line_75608747_3099366_3097332 Units=km Length=0.029399999618530275 bus1=3097332.1.2.3 bus2=3099366.1.2.3 switch=n enabled=y phases=3 Linecode=3P_Code1
New Line.line_75608768_3099387_3097338 Units=km Length=0.022100000381469725 bus1=3097338.1.2.3 bus2=3099387.1.2.3 switch=n enabled=y phases=3 Linecode=3P_Code1
New Line.line_75608801_3099414_3097343 Units=km Length=0.014300000190734864 bus1=3097343.1.2.3 bus2=3099414.1.2.3 switch=n enabled=y phases=3 Linecode=3P_Code1
New Line.line_75608898_3099501_3097189 Units=km Length=0.02129999923706055 bus1=3097189.1.2.3 bus2=3099501.1.2.3 switch=n enabled=y phases=3 Linecode=3P_Code1
New Line.line_75608929_3099531_3097343 Units=km Length=0.026899999618530273 bus1=3097343.1.2.3 bus2=3099531.1.2.3 switch=n enabled=y phases=3 Linecode=3P_Code1
New Line.line_75608937_3099538_3097596 Units=km Length=0.010199999809265137 bus1=3097596.1.2.3 bus2=3099538.1.2.3 switch=n enabled=y phases=3 Linecode=3P_Code1
New Line.line_75608938_3099539_3097596 Units=km Length=0.026200000762939452 bus1=3097596.1.2.3 bus2=3099539.1.2.3 switch=n enabled=y phases=3 Linecode=3P_Code1
New Line.line_75608941_3099542_3097338 Units=km Length=0.011899999618530274 bus1=3097338.1.2.3 bus2=3099542.1.2.3 switch=n enabled=y phases=3 Linecode=3P_Code1
New Line.line_75608942_3099543_3097338 Units=km Length=0.022899999618530273 bus1=3097338.1.2.3 bus2=3099543.1.2.3 switch=n enabled=y phases=3 Linecode=3P_Code1
New Line.line_75608945_3099546_3097343 Units=km Length=0.0125 bus1=3097343.1.2.3 bus2=3099546.1.2.3 switch=n enabled=y phases=3 Linecode=3P_Code1
New Line.line_75608964_3099563_3097189 Units=km Length=0.030700000762939453 bus1=3097189.1.2.3 bus2=3099563.1.2.3 switch=n enabled=y phases=3 Linecode=3P_Code1
New Line.line_75609080_3099668_3097365 Units=km Length=0.008600000381469727 bus1=3097365.1.2.3 bus2=3099668.1.2.3 switch=n enabled=y phases=3 Linecode=3P_Code1
New Line.line_75609239_3099803_3097190 Units=km Length=0.009800000190734863 bus1=3097190.2.3 bus2=3099803.2.3 switch=n enabled=y phases=2 Linecode=2P_Code3
New Line.line_75609418_3099965_3097332 Units=km Length=0.018200000762939452 bus1=3097332.1.2.3 bus2=3099965.1.2.3 switch=n enabled=y phases=3 Linecode=3P_Code1
New Line.line_75609479_3100015_3097365 Units=km Length=0.0275 bus1=3097365.1.2.3 bus2=3100015.1.2.3 switch=n enabled=y phases=3 Linecode=3P_Code1
New Line.line_75609590_3100084_3097838 Units=km Length=0.009399999618530273 bus1=3097838.1.2.3 bus2=3100084.1.2.3 switch=n enabled=y phases=3 Linecode=3P_Code1
New Line.line_75609591_3100084_3097838 Units=km Length=0.009399999618530273 bus1=3097838.1.2.3 bus2=3100084.1.2.3 switch=n enabled=y phases=3 Linecode=3P_Code1
New Line.line_75609679_3100137_3097338 Units=km Length=0.0115 bus1=3097338.1.2.3 bus2=3100137.1.2.3 switch=n enabled=y phases=3 Linecode=3P_Code1
New Line.line_75609767_3100190_3097187 Units=km Length=0.021700000762939455 bus1=3097187.1.2.3 bus2=3100190.1.2.3 switch=n enabled=y phases=3 Linecode=3P_Code1
New Line.line_75609910_3100286_3097338 Units=km Length=0.02 bus1=3097338.1.2.3 bus2=3100286.1.2.3 switch=n enabled=y phases=3 Linecode=3P_Code1
New Line.line_75610050_3100319_3097838 Units=km Length=0.018899999618530273 bus1=3097838.1.2.3 bus2=3100319.1.2.3 switch=n enabled=y phases=3 Linecode=3P_Code1
New Line.line_75610166_3100358_3097596 Units=km Length=0.010399999618530274 bus1=3097596.1.2.3 bus2=3100358.1.2.3 switch=n enabled=y phases=3 Linecode=3P_Code1
New Line.line_75610342_3098774_3098447 Units=km Length=0.020100000381469727 bus1=3098447.1.2.3 bus2=3098774.1.2.3 switch=n enabled=y phases=3 Linecode=3P_OH_Code2
New Line.line_75610361_3100498_3097449 Units=km Length=0.02560000038146973 bus1=3097449.1.2.3 bus2=3100498.1.2.3 switch=n enabled=y phases=3 Linecode=3P_Code1
New Line.line_75610491_3097338_3097759 Units=km Length=0.041700000762939456 bus1=3097759.1.2.3 bus2=3097338.1.2.3 switch=n enabled=y phases=3 Linecode=3P_OH_Code2
New Line.line_75610494_3100580_3097838 Units=km Length=0.017100000381469728 bus1=3097838.1.2.3 bus2=3100580.1.2.3 switch=n enabled=y phases=3 Linecode=3P_Code1
New Line.line_75610528_3100604_3097174 Units=km Length=0.032099998474121094 bus1=3097174.1.2.3 bus2=3100604.1.2.3 switch=n enabled=y phases=3 Linecode=3P_Code1
New Line.line_75610548_3100619_3097189 Units=km Length=0.015399999618530273 bus1=3097189.1.2.3 bus2=3100619.1.2.3 switch=n enabled=y phases=3 Linecode=3P_Code1
New Line.line_75610743_3100772_3097343 Units=km Length=0.018799999237060546 bus1=3097343.1.2.3 bus2=3100772.1.2.3 switch=n enabled=y phases=3 Linecode=3P_Code1
New Line.line_75610818_3100817_3097187 Units=km Length=0.020200000762939454 bus1=3097187.1.2.3 bus2=3100817.1.2.3 switch=n enabled=y phases=3 Linecode=3P_Code1
New Line.line_75610836_3100829_3097759 Units=km Length=0.011800000190734863 bus1=3097759.1.2.3 bus2=3100829.1.2.3 switch=n enabled=y phases=3 Linecode=3P_Code1
New Line.line_75610884_3100861_3097596 Units=km Length=0.025700000762939455 bus1=3097596.1.2.3 bus2=3100861.1.2.3 switch=n enabled=y phases=3 Linecode=3P_Code1
New Line.line_75610885_3100861_3097596 Units=km Length=0.025700000762939455 bus1=3097596.1.2.3 bus2=3100861.1.2.3 switch=n enabled=y phases=3 Linecode=3P_Code1
New Line.line_75610896_3100868_3098562 Units=km Length=0.018899999618530273 bus1=3098562.1.2.3 bus2=3100868.1.2.3 switch=n enabled=y phases=3 Linecode=3P_Code1
New Line.line_75611010_3099104_3097449 Units=km Length=0.008300000190734864 bus1=3097449.1.2.3 bus2=3099104.1.2.3 switch=n enabled=y phases=3 Linecode=3P_Code1
New Line.line_75611011_3097596_3097365 Units=km Length=0.03979999923706055 bus1=3097365.1.2.3 bus2=3097596.1.2.3 switch=n enabled=y phases=3 Linecode=3P_OH_Code2
New Line.line_75611023_3100950_3097408 Units=km Length=0.008600000381469727 bus1=3097408.1.2.3 bus2=3100950.1.2.3 switch=n enabled=y phases=3 Linecode=3P_Code1
New Line.line_75611047_3098562_3098447 Units=km Length=0.034099998474121096 bus1=3098447.1.2.3 bus2=3098562.1.2.3 switch=n enabled=y phases=3 Linecode=3P_OH_Code0
New Line.line_75611146_3101027_3097756 Units=km Length=0.011300000190734863 bus1=3097756.1.2.3 bus2=3101027.1.2.3 switch=n enabled=y phases=3 Linecode=3P_Code1
New Line.line_75611147_3101027_3097756 Units=km Length=0.011300000190734863 bus1=3097756.1.2.3 bus2=3101027.1.2.3 switch=n enabled=y phases=3 Linecode=3P_Code1
New Line.line_75611285_3098457_3098562 Units=km Length=0.028899999618530275 bus1=3098562.1.2.3 bus2=3098457.1.2.3 switch=n enabled=y phases=3 Linecode=3P_OH_Code0
New Line.line_75611308_3101128_3097449 Units=km Length=0.015100000381469726 bus1=3097449.1.2.3 bus2=3101128.1.2.3 switch=n enabled=y phases=3 Linecode=3P_Code1
New Line.line_75611382_3101179_3097838 Units=km Length=0.0205 bus1=3097838.1.2.3 bus2=3101179.1.2.3 switch=n enabled=y phases=3 Linecode=3P_Code1
New Line.line_75611419_3101202_3097174 Units=km Length=0.0135 bus1=3097174.1.2.3 bus2=3101202.1.2.3 switch=n enabled=y phases=3 Linecode=3P_Code1
New Line.line_75611687_3101348_3097332 Units=km Length=0.013800000190734863 bus1=3097332.1.2.3 bus2=3101348.1.2.3 switch=n enabled=y phases=3 Linecode=3P_Code1
New Line.line_75611688_3101349_3097756 Units=km Length=0.0095 bus1=3097756.1.2.3 bus2=3101349.1.2.3 switch=n enabled=y phases=3 Linecode=3P_Code1
New Line.line_75611689_3101349_3097756 Units=km Length=0.0095 bus1=3097756.1.2.3 bus2=3101349.1.2.3 switch=n enabled=y phases=3 Linecode=3P_Code1
New Line.line_75611905_3101477_3097332 Units=km Length=0.023299999237060547 bus1=3097332.1.2.3 bus2=3101477.1.2.3 switch=n enabled=y phases=3 Linecode=3P_Code1
New Line.line_75611951_3101502_3098562 Units=km Length=0.012899999618530274 bus1=3098562.1.2.3 bus2=3101502.1.2.3 switch=n enabled=y phases=3 Linecode=3P_Code1
New Line.line_75612120_3097756_3098762 Units=km Length=0.022200000762939452 bus1=3098762.1.2.3 bus2=3097756.1.2.3 switch=n enabled=y phases=3 Linecode=3P_Code1
New Line.line_75612136_3101599_3098762 Units=km Length=0.011699999809265137 bus1=3098762.1.2.3 bus2=3101599.1.2.3 switch=n enabled=y phases=3 Linecode=3P_Code1
New Line.line_75612137_3101600_3098762 Units=km Length=0.016600000381469728 bus1=3098762.1.2.3 bus2=3101600.1.2.3 switch=n enabled=y phases=3 Linecode=3P_Code1
New Line.line_75612139_3101601_3098766 Units=km Length=0.010300000190734864 bus1=3098766.1.2.3 bus2=3101601.1.2.3 switch=n enabled=y phases=3 Linecode=3P_OH_Code2
New Line.line_75612140_3098762_3097210 Units=km Length=0.030600000381469726 bus1=3097210.1.2.3 bus2=3098762.1.2.3 switch=n enabled=y phases=3 Linecode=3P_OH_Code2
New Line.line_75612141_3098762_3098766 Units=km Length=0.021899999618530275 bus1=3098766.1.2.3 bus2=3098762.1.2.3 switch=n enabled=y phases=3 Linecode=3P_OH_Code2
New Line.line_75612183_3097189_3098774 Units=km Length=0.03670000076293945 bus1=3098774.1.2.3 bus2=3097189.1.2.3 switch=n enabled=y phases=3 Linecode=3P_OH_Code2
New Line.line_75623197_3102604_3099345 Units=km Length=0.019306949248657952 bus1=3099345.2 bus2=3102604.2 switch=n enabled=y phases=1 Linecode=1P_Code5
New Line.line_75623200_3102607_3101349 Units=km Length=0.0036123946189575563 bus1=3101349.2 bus2=3102607.2 switch=n enabled=y phases=1 Linecode=1P_Code5
New Line.line_75623201_3102608_3101349 Units=km Length=0.0036123946189575563 bus1=3101349.3 bus2=3102608.3 switch=n enabled=y phases=1 Linecode=1P_Code5
New Line.line_75623221_3102628_3101601 Units=km Length=0.0062532995958082035 bus1=3101601.2 bus2=3102628.2 switch=n enabled=y phases=1 Linecode=1P_Code5
New Line.line_75623222_3102629_3101601 Units=km Length=0.0062532995958082035 bus1=3101601.1 bus2=3102629.1 switch=n enabled=y phases=1 Linecode=1P_Code5
New Line.line_75623223_3102630_3101601 Units=km Length=0.02425795998888698 bus1=3101601.3 bus2=3102630.3 switch=n enabled=y phases=1 Linecode=1P_Code5
New Line.line_75623235_3102642_3097186 Units=km Length=0.008445290849005863 bus1=3097186.2 bus2=3102642.2 switch=n enabled=y phases=1 Linecode=1P_Code5
New Line.line_75623236_3102643_3099200 Units=km Length=0.017591474060081703 bus1=3099200.2 bus2=3102643.2 switch=n enabled=y phases=1 Linecode=1P_Code5
New Line.line_75623237_3102644_3099086 Units=km Length=0.013376716076986822 bus1=3099086.3 bus2=3102644.3 switch=n enabled=y phases=1 Linecode=1P_Code5
New Line.line_75623238_3102645_3099142 Units=km Length=0.011092186926442952 bus1=3099142.1 bus2=3102645.1 switch=n enabled=y phases=1 Linecode=1P_Code5
New Line.line_75623239_3102646_3099142 Units=km Length=0.011092186926442952 bus1=3099142.1 bus2=3102646.1 switch=n enabled=y phases=1 Linecode=1P_Code5
New Line.line_75623240_3102647_3100772 Units=km Length=0.007042896450474427 bus1=3100772.1 bus2=3102647.1 switch=n enabled=y phases=1 Linecode=1P_Code5
New Line.line_75623327_3102734_3100868 Units=km Length=0.017717903850202582 bus1=3100868.1 bus2=3102734.1 switch=n enabled=y phases=1 Linecode=1P_Code5
New Line.line_75623328_3102735_3097189 Units=km Length=0.025745495916059888 bus1=3097189.2 bus2=3102735.2 switch=n enabled=y phases=1 Linecode=1P_Code5
New Line.line_75623329_3102736_3098774 Units=km Length=0.011400262472312106 bus1=3098774.1 bus2=3102736.1 switch=n enabled=y phases=1 Linecode=1P_Code5
New Line.line_75623330_3102737_3099345 Units=km Length=0.0033388496263839274 bus1=3099345.3 bus2=3102737.3 switch=n enabled=y phases=1 Linecode=1P_Code5
New Line.line_75623331_3102738_3100084 Units=km Length=0.0062147028417869005 bus1=3100084.3 bus2=3102738.3 switch=n enabled=y phases=1 Linecode=1P_Code5
New Line.line_75623332_3102739_3100015 Units=km Length=0.02510061795493311 bus1=3100015.3 bus2=3102739.3 switch=n enabled=y phases=1 Linecode=1P_Code5
New Line.line_75623333_3102740_3100861 Units=km Length=0.009624623600185928 bus1=3100861.2 bus2=3102740.2 switch=n enabled=y phases=1 Linecode=1P_Code5
New Line.line_75623496_3102903_3101027 Units=km Length=0.03846029459165891 bus1=3101027.2 bus2=3102903.2 switch=n enabled=y phases=1 Linecode=1P_Code5
New Line.line_75623502_3102909_3100861 Units=km Length=0.029968157631892756 bus1=3100861.3 bus2=3102909.3 switch=n enabled=y phases=1 Linecode=1P_Code5
New Line.line_75623600_3103007_3100817 Units=km Length=0.014293332586125963 bus1=3100817.3 bus2=3103007.3 switch=n enabled=y phases=1 Linecode=1P_Code5
New Line.line_75623720_3103127_3100580 Units=km Length=0.013497970135470487 bus1=3100580.3 bus2=3103127.3 switch=n enabled=y phases=1 Linecode=1P_Code5
New Line.line_75623721_3103128_3100580 Units=km Length=0.013497970135470487 bus1=3100580.1.2.3 bus2=3103128.1.2.3 switch=n enabled=y phases=3 Linecode=3P_Code6
New Line.line_75623722_3103129_3100580 Units=km Length=0.013497970135470487 bus1=3100580.1 bus2=3103129.1 switch=n enabled=y phases=1 Linecode=1P_Code5
New Line.line_75623723_3103130_3100580 Units=km Length=0.013497970135470487 bus1=3100580.3 bus2=3103130.3 switch=n enabled=y phases=1 Linecode=1P_Code5
New Line.line_75623724_3103131_3100580 Units=km Length=0.013497970135470487 bus1=3100580.1 bus2=3103131.1 switch=n enabled=y phases=1 Linecode=1P_Code5
New Line.line_75623725_3103132_3100580 Units=km Length=0.013497970135470487 bus1=3100580.2 bus2=3103132.2 switch=n enabled=y phases=1 Linecode=1P_Code5
New Line.line_75623762_3103169_3098457 Units=km Length=0.010114324464990915 bus1=3098457.3 bus2=3103169.3 switch=n enabled=y phases=1 Linecode=1P_Code5
New Line.line_75623777_3103184_3099086 Units=km Length=0.00225092792005023 bus1=3099086.2 bus2=3103184.2 switch=n enabled=y phases=1 Linecode=1P_Code5
